data_global
_chemical_name_mineral 'Hematite'
_chemical_formula_sum 'Fe2 O3'
_cell_length_a 5.038
_cell_length_b 5.434
_cell_length_c 16.95261
_cell_angle_alpha 90
_cell_angle_beta 90
_cell_angle_gamma 90
_cell_volume 201.784
_symmetry_space_group_name_H-M 'P 1'
loop_
_space_group_symop_operation_xyz
  'x,y,z'
loop_
_atom_site_label
_atom_site_fract_x
_atom_site_fract_y
_atom_site_fract_z
O       1.53000e-01   9.45200e-01   9.11739e-01
O       3.47000e-01   4.45200e-01   9.11739e-01
O       6.53000e-01   1.11210e+00   8.27391e-01
O       8.47000e-01   6.12100e-01   8.27391e-01
Fe      0.00000e+00   9.69100e-01   8.06522e-01
Fe      5.00000e-01   4.69100e-01   8.06522e-01
O       3.06000e-01   7.44100e-01   7.60870e-01
O       1.94000e-01   2.43100e-01   7.60870e-01
Fe      5.00000e-01   1.01910e+00   7.15217e-01
Fe      0.00000e+00   5.18100e-01   7.15217e-01
O       8.47000e-01   8.76100e-01   6.94348e-01
O       6.53000e-01   3.75100e-01   6.94348e-01
O       3.47000e-01   1.04310e+00   6.10000e-01
O       1.53000e-01   5.42100e-01   6.10000e-01
Fe      0.00000e+00   9.00100e-01   5.89130e-01
Fe      5.00000e-01   3.99100e-01   5.89130e-01
O       6.94000e-01   6.74100e-01   5.43478e-01
O       8.06000e-01   1.74100e-01   5.43478e-01
Fe      5.00000e-01   9.49100e-01   4.97826e-01
Fe      0.00000e+00   4.49100e-01   4.97826e-01
O       1.53000e-01   8.06100e-01   4.76957e-01
O       3.47000e-01   3.06100e-01   4.76957e-01
O       6.53000e-01   9.73000e-01   3.92609e-01
O       8.47000e-01   4.73000e-01   3.92609e-01
Fe      0.00000e+00   8.30000e-01   3.71739e-01
Fe      5.00000e-01   3.30000e-01   3.71739e-01
O       3.06000e-01   6.05000e-01   3.26087e-01
O       1.94000e-01   1.04000e-01   3.26087e-01
Fe      5.00000e-01   8.80000e-01   2.80435e-01
Fe      0.00000e+00   3.79000e-01   2.80435e-01
O       8.47000e-01   7.37000e-01   2.59565e-01
O       6.53000e-01   2.36000e-01   2.59565e-01
O       3.47000e-01   9.04000e-01   1.75217e-01
O       1.53000e-01   4.03000e-01   1.75217e-01
Fe      0.00000e+00   7.61000e-01   1.54348e-01
Fe      5.00000e-01   2.60000e-01   1.54348e-01
O       6.94000e-01   5.35000e-01   1.08696e-01
O       8.06000e-01   3.50000e-02   1.08696e-01
Fe      5.00000e-01   8.10000e-01   6.30435e-02
Fe      0.00000e+00   3.10000e-01   6.30435e-02
O       1.53000e-01   6.67000e-01   4.21739e-02
O       3.47000e-01   1.67000e-01   4.21739e-02
