data_global
_chemical_name_mineral 'Hematite'
_chemical_formula_sum 'Fe2 O3'
_cell_length_a 5.038
_cell_length_b 5.434
_cell_length_c 9.866952099999997
_cell_angle_alpha 90
_cell_angle_beta 90
_cell_angle_gamma 90
_cell_volume 201.784
_symmetry_space_group_name_H-M 'P 1'
loop_
_space_group_symop_operation_xyz
  'x,y,z'
loop_
_atom_site_label
_atom_site_fract_x
_atom_site_fract_y
_atom_site_fract_z
O       6.53000e-01   9.73000e-01   6.74549e-01
O       8.47000e-01   4.73000e-01   6.74549e-01
O       3.06000e-01   6.05000e-01   5.60257e-01
O       1.94000e-01   1.04000e-01   5.60257e-01
Fe      5.00000e-01   8.80000e-01   4.81821e-01
Fe      0.00000e+00   3.79000e-01   4.81821e-01
O       8.47000e-01   7.37000e-01   4.45964e-01
O       6.53000e-01   2.36000e-01   4.45964e-01
O       3.47000e-01   9.04000e-01   3.01045e-01
O       1.53000e-01   4.03000e-01   3.01045e-01
Fe      0.00000e+00   7.61000e-01   2.65188e-01
Fe      5.00000e-01   2.60000e-01   2.65188e-01
O       6.94000e-01   5.35000e-01   1.86752e-01
O       8.06000e-01   3.50000e-02   1.86752e-01
Fe      5.00000e-01   8.10000e-01   1.08316e-01
Fe      0.00000e+00   3.10000e-01   1.08316e-01
O       1.53000e-01   6.67000e-01   7.24599e-02
O       3.47000e-01   1.67000e-01   7.24599e-02
O       7.50000e-01   4.73000e-01   7.75897e-01
O       7.50000e-01   9.73000e-01   7.75897e-01
O       7.50000e-01   4.73000e-01   7.75897e-01
O       7.50000e-01   9.73000e-01   7.75897e-01