data_global
_chemical_name_mineral 'Hematite'
_chemical_formula_sum 'Fe2 O3'
_cell_length_a 5.038
_cell_length_b 5.434
_cell_length_c 11.372101817159969
_cell_angle_alpha 90
_cell_angle_beta 90
_cell_angle_gamma 90
_cell_volume 201.784
_symmetry_space_group_name_H-M 'P 1'
loop_
_space_group_symop_operation_xyz
  'x,y,z'
loop_
_atom_site_label
_atom_site_fract_x
_atom_site_fract_y
_atom_site_fract_z
O       1.53000e-01   8.06100e-01   7.11008e-01
O       3.47000e-01   3.06100e-01   7.11008e-01
O       6.53000e-01   9.73000e-01   5.85269e-01
O       8.47000e-01   4.73000e-01   5.85269e-01
Fe      0.00000e+00   8.30000e-01   5.54159e-01
Fe      5.00000e-01   3.30000e-01   5.54159e-01
O       3.06000e-01   6.05000e-01   4.86104e-01
O       1.94000e-01   1.04000e-01   4.86104e-01
Fe      5.00000e-01   8.80000e-01   4.18050e-01
Fe      0.00000e+00   3.79000e-01   4.18050e-01
O       8.47000e-01   7.37000e-01   3.86939e-01
O       6.53000e-01   2.36000e-01   3.86939e-01
O       3.47000e-01   9.04000e-01   2.61200e-01
O       1.53000e-01   4.03000e-01   2.61200e-01
Fe      0.00000e+00   7.61000e-01   2.30089e-01
Fe      5.00000e-01   2.60000e-01   2.30089e-01
O       6.94000e-01   5.35000e-01   1.62035e-01
O       8.06000e-01   3.50000e-02   1.62035e-01
Fe      5.00000e-01   8.10000e-01   9.39801e-02
Fe      0.00000e+00   3.10000e-01   9.39801e-02
O       1.53000e-01   6.67000e-01   6.28695e-02
O       3.47000e-01   1.67000e-01   6.28695e-02
Pb      -7.85904e-02   4.46512e-01   8.05558e-01
O       2.50000e-01   3.06100e-01   7.98943e-01
O       2.50000e-01   8.06100e-01   7.98943e-01
O       2.50000e-01   3.06100e-01   7.98943e-01
O       2.50000e-01   8.06100e-01   7.98943e-01