data_global
_chemical_name_mineral 'Hematite'
_chemical_formula_sum 'Fe2 O3'
_cell_length_a 5.038
_cell_length_b 5.434
_cell_length_c 11.374366221290204
_cell_angle_alpha 90
_cell_angle_beta 90
_cell_angle_gamma 90
_cell_volume 201.784
_symmetry_space_group_name_H-M 'P 1'
loop_
_space_group_symop_operation_xyz
  'x,y,z'
loop_
_atom_site_label
_atom_site_fract_x
_atom_site_fract_y
_atom_site_fract_z
O       8.47000e-01   7.37000e-01   7.10867e-01
O       6.53000e-01   2.36000e-01   7.10867e-01
O       3.47000e-01   9.04000e-01   5.85153e-01
O       1.53000e-01   4.03000e-01   5.85153e-01
Fe      0.00000e+00   7.61000e-01   5.54048e-01
Fe      5.00000e-01   2.60000e-01   5.54048e-01
O       6.94000e-01   5.35000e-01   4.86007e-01
O       8.06000e-01   3.50000e-02   4.86007e-01
Fe      5.00000e-01   8.10000e-01   4.17966e-01
Fe      0.00000e+00   3.10000e-01   4.17966e-01
O       1.53000e-01   6.67000e-01   3.86862e-01
O       3.47000e-01   1.67000e-01   3.86862e-01
O       6.53000e-01   8.33900e-01   2.61148e-01
O       8.47000e-01   3.33900e-01   2.61148e-01
Fe      0.00000e+00   6.90900e-01   2.30043e-01
Fe      5.00000e-01   1.90900e-01   2.30043e-01
O       3.06000e-01   4.65900e-01   1.62002e-01
O       1.94000e-01   -3.51000e-02   1.62002e-01
Fe      5.00000e-01   7.40900e-01   9.39614e-02
Fe      0.00000e+00   2.39900e-01   9.39614e-02
O       8.47000e-01   5.97900e-01   6.28569e-02
O       6.53000e-01   9.69000e-02   6.28569e-02
Pb      1.07921e+00   3.76926e-01   8.05597e-01
O       7.50000e-01   2.36500e-01   7.98784e-01
O       7.50000e-01   7.36500e-01   7.98784e-01
O       7.50000e-01   2.36500e-01   7.98784e-01
O       7.50000e-01   7.36500e-01   7.98784e-01