data_global
_cell_length_a 5.42657912265586
_cell_length_b 5.034600000000001
_cell_length_c 7.402361659257432
_cell_angle_alpha 90.0
_cell_angle_beta 95.85904640164713
_cell_angle_gamma 90.0
_cell_volume 201.1808903035376
_symmetry_space_group_name_H-M 'P 1'
loop_
_space_group_symop_operation_xyz
  'x,y,z'
loop_
_atom_site_label
_atom_site_fract_x
_atom_site_fract_y
_atom_site_fract_z
O       6.52800e-01   1.52800e-01   9.02800e-01
O       1.52800e-01   3.47200e-01   9.02800e-01
Fe      7.89320e-01   5.00000e-01   8.55340e-01
Fe      2.89320e-01   -0.00000e+00   8.55340e-01
O       5.00000e-01   6.94400e-01   7.50000e-01
O       -0.00000e+00   8.05600e-01   7.50000e-01
Fe      7.10680e-01   0.00000e+00   6.44660e-01
Fe      2.10680e-01   5.00000e-01   6.44660e-01
O       8.47200e-01   3.47200e-01   5.97200e-01
O       3.47200e-01   1.52800e-01   5.97200e-01
O       6.52800e-01   8.47200e-01   4.02800e-01
O       1.52800e-01   6.52800e-01   4.02800e-01
Fe      7.89320e-01   5.00000e-01   3.55340e-01
Fe      2.89320e-01   -0.00000e+00   3.55340e-01
O       5.00000e-01   3.05600e-01   2.50000e-01
O       0.00000e+00   1.94400e-01   2.50000e-01
Fe      7.10680e-01   0.00000e+00   1.44660e-01
Fe      2.10680e-01   5.00000e-01   1.44660e-01
O       8.47200e-01   6.52800e-01   9.72000e-02
O       3.47200e-01   8.47200e-01   9.72000e-02
