data_global
_cell_length_a 8.3958
_cell_length_b 8.3958
_cell_length_c 8.3958
_cell_angle_alpha 90.0
_cell_angle_beta 90.00000000000001
_cell_angle_gamma 90.00000000000001
_cell_volume 591.8153884539113
_symmetry_space_group_name_H-M 'P 1'
loop_
_space_group_symop_operation_xyz
  'x,y,z'
loop_
_atom_site_label
_atom_site_fract_x
_atom_site_fract_y
_atom_site_fract_z
O       7.45300e-01   9.95300e-01   9.95300e-01
O       5.04700e-01   7.54700e-01   9.95300e-01
O       2.45300e-01   4.95300e-01   9.95300e-01
O       4.70000e-03   2.54700e-01   9.95300e-01
Fe      6.25000e-01   3.75000e-01   8.75000e-01
Fe      1.25000e-01   8.75000e-01   8.75000e-01
O       7.45300e-01   7.54700e-01   7.54700e-01
O       5.04700e-01   9.95300e-01   7.54700e-01
O       2.45300e-01   2.54700e-01   7.54700e-01
O       4.70000e-03   4.95300e-01   7.54700e-01
Fe      7.50000e-01   0.00000e+00   7.50000e-01
Fe      5.00000e-01   7.50000e-01   7.50000e-01
Fe      2.50000e-01   5.00000e-01   7.50000e-01
Fe      0.00000e+00   2.50000e-01   7.50000e-01
O       9.95300e-01   4.70000e-03   7.45300e-01
O       7.54700e-01   2.45300e-01   7.45300e-01
O       4.95300e-01   5.04700e-01   7.45300e-01
O       2.54700e-01   7.45300e-01   7.45300e-01
Fe      8.75000e-01   6.25000e-01   6.25000e-01
Fe      3.75000e-01   1.25000e-01   6.25000e-01
O       9.95300e-01   2.45300e-01   5.04700e-01
O       7.54700e-01   4.70000e-03   5.04700e-01
O       4.95300e-01   7.45300e-01   5.04700e-01
O       2.54700e-01   5.04700e-01   5.04700e-01
Fe      7.50000e-01   2.50000e-01   5.00000e-01
Fe      5.00000e-01   5.00000e-01   5.00000e-01
Fe      2.50000e-01   7.50000e-01   5.00000e-01
Fe      0.00000e+00   0.00000e+00   5.00000e-01
O       7.45300e-01   4.95300e-01   4.95300e-01
O       5.04700e-01   2.54700e-01   4.95300e-01
O       2.45300e-01   9.95300e-01   4.95300e-01
O       4.70000e-03   7.54700e-01   4.95300e-01
Fe      6.25000e-01   8.75000e-01   3.75000e-01
Fe      1.25000e-01   3.75000e-01   3.75000e-01
O       7.45300e-01   2.54700e-01   2.54700e-01
O       5.04700e-01   4.95300e-01   2.54700e-01
O       2.45300e-01   7.54700e-01   2.54700e-01
O       4.70000e-03   9.95300e-01   2.54700e-01
Fe      7.50000e-01   5.00000e-01   2.50000e-01
Fe      5.00000e-01   2.50000e-01   2.50000e-01
Fe      2.50000e-01   0.00000e+00   2.50000e-01
Fe      0.00000e+00   7.50000e-01   2.50000e-01
O       9.95300e-01   5.04700e-01   2.45300e-01
O       7.54700e-01   7.45300e-01   2.45300e-01
O       4.95300e-01   4.70000e-03   2.45300e-01
O       2.54700e-01   2.45300e-01   2.45300e-01
Fe      8.75000e-01   1.25000e-01   1.25000e-01
Fe      3.75000e-01   6.25000e-01   1.25000e-01
O       9.95300e-01   7.45300e-01   4.70000e-03
O       7.54700e-01   5.04700e-01   4.70000e-03
O       4.95300e-01   2.45300e-01   4.70000e-03
O       2.54700e-01   4.70000e-03   4.70000e-03
Fe      7.50000e-01   7.50000e-01   0.00000e+00
Fe      5.00000e-01   0.00000e+00   0.00000e+00
Fe      2.50000e-01   2.50000e-01   0.00000e+00
Fe      0.00000e+00   5.00000e-01   0.00000e+00
